<?xml version="1.0" encoding="UTF-8"?>

<!-- generated on 2026-06-24T10:29:54.428437+00:00 by Eclipse SUMO netconvert 1.27.0
<netconvertConfiguration xmlns:xsi="http://www.w3.org/2001/XMLSchema-instance" xsi:noNamespaceSchemaLocation="http://sumo.dlr.de/xsd/netconvertConfiguration.xsd">

    <input>
        <node-files value="intersection.nod.xml"/>
        <edge-files value="intersection.edg.xml"/>
    </input>

    <output>
        <output-file value="intersection.net.xml"/>
    </output>

    <tls_building>
        <tls.guess value="true"/>
        <tls.default-type value="static"/>
    </tls_building>

    <junctions>
        <no-turnarounds value="true"/>
    </junctions>

    <pedestrian>
        <sidewalks.guess value="false"/>
    </pedestrian>

</netconvertConfiguration>
-->

<net version="1.20" junctionCornerDetail="5" limitTurnSpeed="5.50" xmlns:xsi="http://www.w3.org/2001/XMLSchema-instance" xsi:noNamespaceSchemaLocation="http://sumo.dlr.de/xsd/net_file.xsd">

    <location netOffset="200.00,200.00" convBoundary="0.00,0.00,400.00,400.00" origBoundary="-200.00,-200.00,200.00,200.00" projParameter="!"/>

    <edge id=":C_0" function="internal">
        <lane id=":C_0_0" index="0" speed="6.62" length="9.27" width="3.50" shape="194.75,211.00 194.39,208.48 193.31,206.69 191.52,205.61 189.00,205.25"/>
    </edge>
    <edge id=":C_1" function="internal">
        <lane id=":C_1_0" index="0" speed="13.89" length="22.00" width="3.50" shape="194.75,211.00 194.75,189.00"/>
        <lane id=":C_1_1" index="1" speed="13.89" length="22.00" width="3.50" shape="198.25,211.00 198.25,189.00"/>
    </edge>
    <edge id=":C_3" function="internal">
        <lane id=":C_3_0" index="0" speed="9.55" length="5.63" width="3.50" shape="198.25,211.00 199.05,205.42"/>
    </edge>
    <edge id=":C_16" function="internal">
        <lane id=":C_16_0" index="0" speed="9.55" length="14.93" width="3.50" shape="199.05,205.42 201.44,201.44 205.42,199.05 211.00,198.25"/>
    </edge>
    <edge id=":C_4" function="internal">
        <lane id=":C_4_0" index="0" speed="6.62" length="9.27" width="3.50" shape="211.00,205.25 208.48,205.61 206.69,206.69 205.61,208.48 205.25,211.00"/>
    </edge>
    <edge id=":C_5" function="internal">
        <lane id=":C_5_0" index="0" speed="13.89" length="22.00" width="3.50" shape="211.00,205.25 189.00,205.25"/>
        <lane id=":C_5_1" index="1" speed="13.89" length="22.00" width="3.50" shape="211.00,201.75 189.00,201.75"/>
    </edge>
    <edge id=":C_7" function="internal">
        <lane id=":C_7_0" index="0" speed="9.55" length="5.63" width="3.50" shape="211.00,201.75 205.42,200.95"/>
    </edge>
    <edge id=":C_17" function="internal">
        <lane id=":C_17_0" index="0" speed="9.55" length="14.93" width="3.50" shape="205.42,200.95 201.44,198.56 199.05,194.58 198.25,189.00"/>
    </edge>
    <edge id=":C_8" function="internal">
        <lane id=":C_8_0" index="0" speed="6.62" length="9.27" width="3.50" shape="205.25,189.00 205.61,191.52 206.69,193.31 208.48,194.39 211.00,194.75"/>
    </edge>
    <edge id=":C_9" function="internal">
        <lane id=":C_9_0" index="0" speed="13.89" length="22.00" width="3.50" shape="205.25,189.00 205.25,211.00"/>
        <lane id=":C_9_1" index="1" speed="13.89" length="22.00" width="3.50" shape="201.75,189.00 201.75,211.00"/>
    </edge>
    <edge id=":C_11" function="internal">
        <lane id=":C_11_0" index="0" speed="9.55" length="5.63" width="3.50" shape="201.75,189.00 200.95,194.58"/>
    </edge>
    <edge id=":C_18" function="internal">
        <lane id=":C_18_0" index="0" speed="9.55" length="14.93" width="3.50" shape="200.95,194.58 198.56,198.56 194.58,200.95 189.00,201.75"/>
    </edge>
    <edge id=":C_12" function="internal">
        <lane id=":C_12_0" index="0" speed="6.62" length="9.27" width="3.50" shape="189.00,194.75 191.52,194.39 193.31,193.31 194.39,191.52 194.75,189.00"/>
    </edge>
    <edge id=":C_13" function="internal">
        <lane id=":C_13_0" index="0" speed="13.89" length="22.00" width="3.50" shape="189.00,194.75 211.00,194.75"/>
        <lane id=":C_13_1" index="1" speed="13.89" length="22.00" width="3.50" shape="189.00,198.25 211.00,198.25"/>
    </edge>
    <edge id=":C_15" function="internal">
        <lane id=":C_15_0" index="0" speed="9.55" length="5.63" width="3.50" shape="189.00,198.25 194.58,199.05"/>
    </edge>
    <edge id=":C_19" function="internal">
        <lane id=":C_19_0" index="0" speed="9.55" length="14.93" width="3.50" shape="194.58,199.05 198.56,201.44 200.95,205.42 201.75,211.00"/>
    </edge>

    <edge id="E_in" from="E" to="C" priority="-1">
        <lane id="E_in_0" index="0" speed="13.89" length="189.00" width="3.50" shape="400.00,205.25 211.00,205.25"/>
        <lane id="E_in_1" index="1" speed="13.89" length="189.00" width="3.50" shape="400.00,201.75 211.00,201.75"/>
    </edge>
    <edge id="E_out" from="C" to="E" priority="-1">
        <lane id="E_out_0" index="0" speed="13.89" length="189.00" width="3.50" shape="211.00,194.75 400.00,194.75"/>
        <lane id="E_out_1" index="1" speed="13.89" length="189.00" width="3.50" shape="211.00,198.25 400.00,198.25"/>
    </edge>
    <edge id="N_in" from="N" to="C" priority="-1">
        <lane id="N_in_0" index="0" speed="13.89" length="189.00" width="3.50" shape="194.75,400.00 194.75,211.00"/>
        <lane id="N_in_1" index="1" speed="13.89" length="189.00" width="3.50" shape="198.25,400.00 198.25,211.00"/>
    </edge>
    <edge id="N_out" from="C" to="N" priority="-1">
        <lane id="N_out_0" index="0" speed="13.89" length="189.00" width="3.50" shape="205.25,211.00 205.25,400.00"/>
        <lane id="N_out_1" index="1" speed="13.89" length="189.00" width="3.50" shape="201.75,211.00 201.75,400.00"/>
    </edge>
    <edge id="S_in" from="S" to="C" priority="-1">
        <lane id="S_in_0" index="0" speed="13.89" length="189.00" width="3.50" shape="205.25,0.00 205.25,189.00"/>
        <lane id="S_in_1" index="1" speed="13.89" length="189.00" width="3.50" shape="201.75,0.00 201.75,189.00"/>
    </edge>
    <edge id="S_out" from="C" to="S" priority="-1">
        <lane id="S_out_0" index="0" speed="13.89" length="189.00" width="3.50" shape="194.75,189.00 194.75,0.00"/>
        <lane id="S_out_1" index="1" speed="13.89" length="189.00" width="3.50" shape="198.25,189.00 198.25,0.00"/>
    </edge>
    <edge id="W_in" from="W" to="C" priority="-1">
        <lane id="W_in_0" index="0" speed="13.89" length="189.00" width="3.50" shape="0.00,194.75 189.00,194.75"/>
        <lane id="W_in_1" index="1" speed="13.89" length="189.00" width="3.50" shape="0.00,198.25 189.00,198.25"/>
    </edge>
    <edge id="W_out" from="C" to="W" priority="-1">
        <lane id="W_out_0" index="0" speed="13.89" length="189.00" width="3.50" shape="189.00,205.25 0.00,205.25"/>
        <lane id="W_out_1" index="1" speed="13.89" length="189.00" width="3.50" shape="189.00,201.75 0.00,201.75"/>
    </edge>

    <tlLogic id="C" type="static" programID="0" offset="0">
        <phase duration="42" state="GGGgrrrrGGGgrrrr"/>
        <phase duration="3"  state="yyyyrrrryyyyrrrr"/>
        <phase duration="42" state="rrrrGGGgrrrrGGGg"/>
        <phase duration="3"  state="rrrryyyyrrrryyyy"/>
    </tlLogic>

    <junction id="C" type="traffic_light" x="200.00" y="200.00" incLanes="N_in_0 N_in_1 E_in_0 E_in_1 S_in_0 S_in_1 W_in_0 W_in_1" intLanes=":C_0_0 :C_1_0 :C_1_1 :C_16_0 :C_4_0 :C_5_0 :C_5_1 :C_17_0 :C_8_0 :C_9_0 :C_9_1 :C_18_0 :C_12_0 :C_13_0 :C_13_1 :C_19_0" shape="193.00,211.00 207.00,211.00 207.44,208.78 208.00,208.00 208.78,207.44 209.78,207.11 211.00,207.00 211.00,193.00 208.78,192.56 208.00,192.00 207.44,191.22 207.11,190.22 207.00,189.00 193.00,189.00 192.56,191.22 192.00,192.00 191.22,192.56 190.22,192.89 189.00,193.00 189.00,207.00 191.22,207.44 192.00,208.00 192.56,208.78 192.89,209.78">
        <request index="0"  response="0000000000000000" foes="0000000001100000" cont="0"/>
        <request index="1"  response="1000000000000000" foes="1111100011100000" cont="0"/>
        <request index="2"  response="1000000010000000" foes="1111100011100000" cont="0"/>
        <request index="3"  response="1000011010000000" foes="1110011011100000" cont="1"/>
        <request index="4"  response="0000011000000000" foes="0000011000000000" cont="0"/>
        <request index="5"  response="0000111000001111" foes="1000111000001111" cont="0"/>
        <request index="6"  response="0000111000001111" foes="1000111000001111" cont="0"/>
        <request index="7"  response="0110111000001110" foes="0110111000001110" cont="1"/>
        <request index="8"  response="0000000000000000" foes="0110000000000000" cont="0"/>
        <request index="9"  response="0000000010000000" foes="1110000011111000" cont="0"/>
        <request index="10" response="1000000010000000" foes="1110000011111000" cont="0"/>
        <request index="11" response="1000000010000110" foes="1110000011100110" cont="1"/>
        <request index="12" response="0000000000000110" foes="0000000000000110" cont="0"/>
        <request index="13" response="0000111100001110" foes="0000111110001110" cont="0"/>
        <request index="14" response="0000111100001110" foes="0000111110001110" cont="0"/>
        <request index="15" response="0000111001101110" foes="0000111001101110" cont="1"/>
    </junction>
    <junction id="E" type="dead_end" x="400.00" y="200.00" incLanes="E_out_0 E_out_1" intLanes="" shape="400.00,200.00 400.00,193.00 400.00,200.00"/>
    <junction id="N" type="dead_end" x="200.00" y="400.00" incLanes="N_out_0 N_out_1" intLanes="" shape="200.00,400.00 207.00,400.00 200.00,400.00"/>
    <junction id="S" type="dead_end" x="200.00" y="0.00" incLanes="S_out_0 S_out_1" intLanes="" shape="200.00,0.00 193.00,0.00 200.00,0.00"/>
    <junction id="W" type="dead_end" x="0.00" y="200.00" incLanes="W_out_0 W_out_1" intLanes="" shape="0.00,200.00 0.00,207.00 0.00,200.00"/>

    <junction id=":C_16_0" type="internal" x="199.05" y="205.42" incLanes=":C_3_0 S_in_0 S_in_1" intLanes=":C_5_0 :C_5_1 :C_7_0 :C_8_0 :C_9_0 :C_9_1 :C_13_0 :C_13_1 :C_15_0"/>
    <junction id=":C_17_0" type="internal" x="205.42" y="200.95" incLanes=":C_7_0 W_in_0 W_in_1" intLanes=":C_1_0 :C_1_1 :C_3_0 :C_9_0 :C_9_1 :C_11_0 :C_12_0 :C_13_0 :C_13_1"/>
    <junction id=":C_18_0" type="internal" x="200.95" y="194.58" incLanes=":C_11_0 N_in_0 N_in_1" intLanes=":C_0_0 :C_1_0 :C_1_1 :C_5_0 :C_5_1 :C_7_0 :C_13_0 :C_13_1 :C_15_0"/>
    <junction id=":C_19_0" type="internal" x="194.58" y="199.05" incLanes=":C_15_0 E_in_0 E_in_1" intLanes=":C_1_0 :C_1_1 :C_3_0 :C_4_0 :C_5_0 :C_5_1 :C_9_0 :C_9_1 :C_11_0"/>

    <connection from="E_in" to="N_out" fromLane="0" toLane="0" via=":C_4_0" tl="C" linkIndex="4" dir="r" state="o"/>
    <connection from="E_in" to="W_out" fromLane="0" toLane="0" via=":C_5_0" tl="C" linkIndex="5" dir="s" state="o"/>
    <connection from="E_in" to="W_out" fromLane="1" toLane="1" via=":C_5_1" tl="C" linkIndex="6" dir="s" state="o"/>
    <connection from="E_in" to="S_out" fromLane="1" toLane="1" via=":C_7_0" tl="C" linkIndex="7" dir="l" state="o"/>
    <connection from="N_in" to="W_out" fromLane="0" toLane="0" via=":C_0_0" tl="C" linkIndex="0" dir="r" state="O"/>
    <connection from="N_in" to="S_out" fromLane="0" toLane="0" via=":C_1_0" tl="C" linkIndex="1" dir="s" state="O"/>
    <connection from="N_in" to="S_out" fromLane="1" toLane="1" via=":C_1_1" tl="C" linkIndex="2" dir="s" state="O"/>
    <connection from="N_in" to="E_out" fromLane="1" toLane="1" via=":C_3_0" tl="C" linkIndex="3" dir="l" state="o"/>
    <connection from="S_in" to="E_out" fromLane="0" toLane="0" via=":C_8_0" tl="C" linkIndex="8" dir="r" state="O"/>
    <connection from="S_in" to="N_out" fromLane="0" toLane="0" via=":C_9_0" tl="C" linkIndex="9" dir="s" state="O"/>
    <connection from="S_in" to="N_out" fromLane="1" toLane="1" via=":C_9_1" tl="C" linkIndex="10" dir="s" state="O"/>
    <connection from="S_in" to="W_out" fromLane="1" toLane="1" via=":C_11_0" tl="C" linkIndex="11" dir="l" state="o"/>
    <connection from="W_in" to="S_out" fromLane="0" toLane="0" via=":C_12_0" tl="C" linkIndex="12" dir="r" state="o"/>
    <connection from="W_in" to="E_out" fromLane="0" toLane="0" via=":C_13_0" tl="C" linkIndex="13" dir="s" state="o"/>
    <connection from="W_in" to="E_out" fromLane="1" toLane="1" via=":C_13_1" tl="C" linkIndex="14" dir="s" state="o"/>
    <connection from="W_in" to="N_out" fromLane="1" toLane="1" via=":C_15_0" tl="C" linkIndex="15" dir="l" state="o"/>

    <connection from=":C_0" to="W_out" fromLane="0" toLane="0" dir="r" state="M"/>
    <connection from=":C_1" to="S_out" fromLane="0" toLane="0" dir="s" state="M"/>
    <connection from=":C_1" to="S_out" fromLane="1" toLane="1" dir="s" state="M"/>
    <connection from=":C_3" to="E_out" fromLane="0" toLane="1" via=":C_16_0" dir="l" state="m"/>
    <connection from=":C_16" to="E_out" fromLane="0" toLane="1" dir="l" state="M"/>
    <connection from=":C_4" to="N_out" fromLane="0" toLane="0" dir="r" state="M"/>
    <connection from=":C_5" to="W_out" fromLane="0" toLane="0" dir="s" state="M"/>
    <connection from=":C_5" to="W_out" fromLane="1" toLane="1" dir="s" state="M"/>
    <connection from=":C_7" to="S_out" fromLane="0" toLane="1" via=":C_17_0" dir="l" state="m"/>
    <connection from=":C_17" to="S_out" fromLane="0" toLane="1" dir="l" state="M"/>
    <connection from=":C_8" to="E_out" fromLane="0" toLane="0" dir="r" state="M"/>
    <connection from=":C_9" to="N_out" fromLane="0" toLane="0" dir="s" state="M"/>
    <connection from=":C_9" to="N_out" fromLane="1" toLane="1" dir="s" state="M"/>
    <connection from=":C_11" to="W_out" fromLane="0" toLane="1" via=":C_18_0" dir="l" state="m"/>
    <connection from=":C_18" to="W_out" fromLane="0" toLane="1" dir="l" state="M"/>
    <connection from=":C_12" to="S_out" fromLane="0" toLane="0" dir="r" state="M"/>
    <connection from=":C_13" to="E_out" fromLane="0" toLane="0" dir="s" state="M"/>
    <connection from=":C_13" to="E_out" fromLane="1" toLane="1" dir="s" state="M"/>
    <connection from=":C_15" to="N_out" fromLane="0" toLane="1" via=":C_19_0" dir="l" state="m"/>
    <connection from=":C_19" to="N_out" fromLane="0" toLane="1" dir="l" state="M"/>

</net>
